Inverter simulation

.lib "/foss/pdks/sky130A/libs.tech/ngspice/all.spice" tt

.subckt nmos G S D VSUBS
X0 D G S VSUBS sky130_fd_pr__nfet_01v8
.ends

.subckt pmos G S D VSUBS
X0 D G S w_n54_n54# sky130_fd_pr__pfet_01v8
.ends

.subckt A Z vdd gnd inverter
Xnmos_0 A gnd Z VSUBS nmos
Xpmos_0 A vdd Z VSUBS pmos
.ends

Xinv A Z vdd gnd inverter

Vgnd gnd 0 0
Vdd vdd gnd 1.8

Vin A gnd pulse(0 1.8 1p 10p 10p 1n 2n)
.tran 10e-12 2e-09 0e-00

.control
run
plot A Z
.endc

.end
